Version 4
SHEET 1 1524 792
WIRE 160 -160 16 -160
WIRE 336 -160 240 -160
WIRE 192 112 192 -32
WIRE 16 128 16 -160
WIRE 160 128 16 128
WIRE 336 144 336 -160
WIRE 336 144 256 144
WIRE 624 144 336 144
WIRE 1312 144 624 144
WIRE 1520 144 1392 144
WIRE 160 160 16 160
WIRE 176 160 160 160
WIRE 928 256 848 256
WIRE 1088 256 1008 256
WIRE 192 272 192 176
WIRE 16 368 16 160
WIRE 96 368 16 368
WIRE 240 368 160 368
WIRE 336 368 336 144
WIRE 336 368 320 368
WIRE 848 368 848 256
WIRE 944 368 848 368
WIRE 1088 368 1088 256
WIRE 1088 368 1008 368
WIRE 16 432 16 368
WIRE 16 432 -48 432
WIRE 80 432 16 432
WIRE -48 480 -48 432
WIRE 80 480 80 432
WIRE 1152 480 1152 432
WIRE 1152 480 960 480
WIRE 960 496 960 480
WIRE 624 512 624 144
WIRE 688 512 624 512
WIRE 848 512 848 368
WIRE 848 512 768 512
WIRE 928 512 848 512
WIRE 1088 528 1088 368
WIRE 1088 528 1024 528
WIRE 1312 528 1088 528
WIRE 1520 528 1392 528
WIRE 80 560 80 544
WIRE 960 672 960 560
FLAG -48 560 0
FLAG 80 560 0
FLAG -64 128 0
FLAG 272 272 0
FLAG 272 -32 0
FLAG 1040 672 0
FLAG 1152 352 0
FLAG 928 544 0
SYMBOL UA741 192 144 R0
SYMATTR InstName U1
SYMBOL res 256 -176 R90
WINDOW 0 0 56 VBottom 2
WINDOW 3 32 56 VTop 2
SYMATTR InstName R1
SYMATTR Value 35k
SYMBOL res 336 352 R90
WINDOW 0 0 56 VBottom 2
WINDOW 3 32 56 VTop 2
SYMATTR InstName R2
SYMATTR Value 19k
SYMBOL cap 160 352 R90
WINDOW 0 0 32 VBottom 2
WINDOW 3 32 32 VTop 2
SYMATTR InstName C1
SYMATTR Value 32p
SYMBOL res -64 464 R0
SYMATTR InstName R3
SYMATTR Value 19k
SYMBOL cap 64 480 R0
SYMATTR InstName C2
SYMATTR Value 32p
SYMBOL res 32 112 R90
WINDOW 0 0 56 VBottom 2
WINDOW 3 32 56 VTop 2
SYMATTR InstName R4
SYMATTR Value 10k
SYMBOL res 784 496 R90
WINDOW 0 0 56 VBottom 2
WINDOW 3 32 56 VTop 2
SYMATTR InstName R5
SYMATTR Value 1k
SYMBOL UA741 960 528 R0
SYMATTR InstName U2
SYMBOL res 1024 240 R90
WINDOW 0 0 56 VBottom 2
WINDOW 3 32 56 VTop 2
SYMATTR InstName R6
SYMATTR Value 10k
SYMBOL cap 1008 352 R90
WINDOW 0 0 32 VBottom 2
WINDOW 3 32 32 VTop 2
SYMATTR InstName C3
SYMATTR Value 10n
SYMBOL voltage 176 272 R270
WINDOW 0 32 56 VTop 2
WINDOW 3 -32 56 VBottom 2
WINDOW 123 0 0 Left 0
WINDOW 39 0 0 Left 0
SYMATTR InstName V2
SYMATTR Value -12
SYMBOL voltage 176 -32 R270
WINDOW 0 32 56 VTop 2
WINDOW 3 -32 56 VBottom 2
WINDOW 123 0 0 Left 0
WINDOW 39 0 0 Left 0
SYMATTR InstName V3
SYMATTR Value 12
SYMBOL voltage 944 672 R270
WINDOW 0 32 56 VTop 2
WINDOW 3 -32 56 VBottom 2
WINDOW 123 0 0 Left 0
WINDOW 39 0 0 Left 0
SYMATTR InstName V4
SYMATTR Value -12
SYMBOL voltage 1152 448 R180
WINDOW 0 24 96 Left 2
WINDOW 3 24 16 Left 2
WINDOW 123 0 0 Left 0
WINDOW 39 0 0 Left 0
SYMATTR InstName V5
SYMATTR Value 12
SYMBOL voltage 1296 528 R270
WINDOW 0 32 56 VTop 2
WINDOW 3 -32 56 VBottom 2
WINDOW 123 0 0 Left 0
WINDOW 39 0 0 Left 0
SYMATTR InstName V1
SYMATTR Value 36.4475m
SYMBOL voltage 1296 144 R270
WINDOW 0 32 56 VTop 2
WINDOW 3 -32 56 VBottom 2
WINDOW 123 0 0 Left 0
WINDOW 39 0 0 Left 0
SYMATTR InstName V6
SYMATTR Value -2.7085m
TEXT -80 744 Left 2 !.tran 0 10.1m 10m
