Version 4.1
SHEET 1 1060 680
WIRE 720 16 688 16
WIRE 416 96 336 96
WIRE 880 96 480 96
WIRE 720 224 720 16
WIRE 336 240 336 96
WIRE 336 240 304 240
WIRE 368 240 336 240
WIRE 512 240 448 240
WIRE 672 240 512 240
WIRE 832 256 768 256
WIRE 880 256 880 96
WIRE 880 256 832 256
WIRE 976 256 880 256
WIRE 672 272 608 272
WIRE 512 304 512 240
WIRE 224 336 224 240
WIRE 608 352 608 272
WIRE 832 352 832 256
WIRE 832 352 608 352
WIRE 720 416 720 288
WIRE 720 416 688 416
FLAG 512 368 0
FLAG 608 416 0
FLAG 608 16 0
FLAG 976 336 0
FLAG 224 416 0
SYMBOL res 320 224 R90
WINDOW 0 0 56 VBottom 2
WINDOW 3 32 56 VTop 2
SYMATTR InstName R17
SYMATTR Value 7.96k
SYMBOL res 464 224 R90
WINDOW 0 0 56 VBottom 2
WINDOW 3 32 56 VTop 2
SYMATTR InstName R18
SYMATTR Value 7.96k
SYMBOL cap 496 304 R0
SYMATTR InstName C8
SYMATTR Value 5.93n
SYMBOL UA741 832 256 R0
SYMATTR InstName U5
SYMBOL cap 480 80 R90
WINDOW 0 0 32 VBottom 2
WINDOW 3 32 32 VTop 2
SYMATTR InstName C9
SYMATTR Value 5n
SYMBOL voltage 592 416 R270
WINDOW 0 32 56 VTop 2
WINDOW 3 -32 56 VBottom 2
WINDOW 123 0 0 Left 0
WINDOW 39 0 0 Left 0
SYMATTR InstName V15
SYMATTR Value 12
SYMBOL voltage 704 16 R90
WINDOW 0 -32 56 VBottom 2
WINDOW 3 32 56 VTop 2
WINDOW 123 0 0 Left 0
WINDOW 39 0 0 Left 0
SYMATTR InstName V16
SYMATTR Value 12
SYMBOL res 960 240 R0
SYMATTR InstName R21
SYMATTR Value 10k
SYMBOL voltage 224 320 R0
WINDOW 123 24 124 Left 2
WINDOW 39 0 0 Left 0
SYMATTR Value2 AC 1
SYMATTR InstName V1
SYMATTR Value ""
TEXT 216 -112 Left 2 !.ac dec 100 1 10Meg
