Version 4.1
SHEET 1 880 680
WIRE -2400 -464 -2544 -464
WIRE -2224 -464 -2320 -464
WIRE -96 -384 -128 -384
WIRE -400 -304 -480 -304
WIRE 64 -304 -336 -304
WIRE -2432 -208 -2496 -208
WIRE -2368 -192 -2368 -336
WIRE -2544 -176 -2544 -464
WIRE -2528 -176 -2544 -176
WIRE -2432 -176 -2432 -208
WIRE -2416 -176 -2432 -176
WIRE -2400 -176 -2416 -176
WIRE -96 -176 -96 -384
WIRE -2224 -160 -2224 -464
WIRE -2224 -160 -2320 -160
WIRE -2160 -160 -2224 -160
WIRE -1472 -160 -2160 -160
WIRE -1136 -160 -1392 -160
WIRE -976 -160 -1072 -160
WIRE -896 -160 -976 -160
WIRE -720 -160 -816 -160
WIRE -480 -160 -480 -304
WIRE -480 -160 -512 -160
WIRE -448 -160 -480 -160
WIRE -304 -160 -368 -160
WIRE -144 -160 -304 -160
WIRE -2496 -144 -2496 -208
WIRE -2496 -144 -2544 -144
WIRE -2416 -144 -2464 -144
WIRE -2400 -144 -2416 -144
WIRE -720 -144 -720 -160
WIRE 16 -144 -48 -144
WIRE 64 -144 64 -304
WIRE 64 -144 16 -144
WIRE 160 -144 64 -144
WIRE -720 -128 -720 -144
WIRE -144 -128 -208 -128
WIRE -2528 -112 -2528 -176
WIRE -2464 -112 -2464 -144
WIRE -2464 -112 -2528 -112
WIRE -304 -96 -304 -160
WIRE -976 -64 -976 -160
WIRE -1856 -48 -1936 -48
WIRE -1696 -48 -1776 -48
WIRE -208 -48 -208 -128
WIRE 16 -48 16 -144
WIRE 16 -48 -208 -48
WIRE -2368 -32 -2368 -128
WIRE -992 -16 -1264 -16
WIRE -592 -16 -592 -160
WIRE -592 -16 -896 -16
WIRE -96 16 -96 -112
WIRE -96 16 -128 16
WIRE -2544 64 -2544 -144
WIRE -2464 64 -2544 64
WIRE -2320 64 -2400 64
WIRE -2224 64 -2224 -160
WIRE -2224 64 -2240 64
WIRE -1936 64 -1936 -48
WIRE -1840 64 -1936 64
WIRE -1696 64 -1696 -48
WIRE -1696 64 -1776 64
WIRE -2544 128 -2544 64
WIRE -2544 128 -2608 128
WIRE -2480 128 -2544 128
WIRE -96 144 -128 144
WIRE -2608 176 -2608 128
WIRE -2480 176 -2480 128
WIRE -1632 192 -1632 128
WIRE -1632 192 -1808 192
WIRE -2160 208 -2160 -160
WIRE -2096 208 -2160 208
WIRE -1936 208 -1936 64
WIRE -1936 208 -2016 208
WIRE -1696 224 -1696 64
WIRE -1696 224 -1760 224
WIRE -1472 224 -1696 224
WIRE -1136 224 -1392 224
WIRE -976 224 -1072 224
WIRE -896 224 -976 224
WIRE -720 224 -816 224
WIRE -400 224 -480 224
WIRE 64 224 -336 224
WIRE -1936 240 -1936 208
WIRE -1856 240 -1936 240
WIRE -720 240 -720 224
WIRE -2480 256 -2480 240
WIRE -720 256 -720 240
WIRE -976 320 -976 224
WIRE -96 352 -96 144
WIRE -1808 368 -1808 256
WIRE -992 368 -1264 368
WIRE -592 368 -896 368
WIRE -480 368 -480 224
WIRE -480 368 -512 368
WIRE -448 368 -480 368
WIRE -304 368 -368 368
WIRE -144 368 -304 368
WIRE 16 384 -48 384
WIRE 64 384 64 224
WIRE 64 384 16 384
WIRE 160 384 64 384
WIRE -144 400 -208 400
WIRE -304 432 -304 368
WIRE -208 480 -208 400
WIRE 16 480 16 384
WIRE 16 480 -208 480
WIRE -96 544 -96 416
WIRE -96 544 -128 544
FLAG -2608 256 0
FLAG -2480 256 0
FLAG -2624 -176 0
FLAG -2288 -32 0
FLAG -2288 -336 0
FLAG -1728 368 0
FLAG -1632 48 0
FLAG -1856 208 0
FLAG -720 320 0
FLAG -944 368 0
FLAG -1264 448 0
FLAG -720 -64 0
FLAG -944 -16 0
FLAG -1264 64 0
FLAG -304 -32 0
FLAG -208 16 0
FLAG -208 -384 0
FLAG 160 -64 0
FLAG -304 496 0
FLAG -208 544 0
FLAG -208 144 0
FLAG 160 464 0
SYMBOL res -2304 -480 R90
WINDOW 0 0 56 VBottom 2
WINDOW 3 32 56 VTop 2
SYMATTR InstName R2
SYMATTR Value 35k
SYMBOL res -2224 48 R90
WINDOW 0 0 56 VBottom 2
WINDOW 3 32 56 VTop 2
SYMATTR InstName R3
SYMATTR Value 19k
SYMBOL cap -2400 48 R90
WINDOW 0 0 32 VBottom 2
WINDOW 3 32 32 VTop 2
SYMATTR InstName C2
SYMATTR Value 32p
SYMBOL res -2624 160 R0
SYMATTR InstName R4
SYMATTR Value 19k
SYMBOL cap -2496 176 R0
SYMATTR InstName C3
SYMATTR Value 32p
SYMBOL res -2528 -192 R90
WINDOW 0 0 56 VBottom 2
WINDOW 3 32 56 VTop 2
SYMATTR InstName R5
SYMATTR Value 10k
SYMBOL res -2000 192 R90
WINDOW 0 0 56 VBottom 2
WINDOW 3 32 56 VTop 2
SYMATTR InstName R6
SYMATTR Value 1k
SYMBOL res -1760 -64 R90
WINDOW 0 0 56 VBottom 2
WINDOW 3 32 56 VTop 2
SYMATTR InstName R7
SYMATTR Value 10k
SYMBOL cap -1776 48 R90
WINDOW 0 0 32 VBottom 2
WINDOW 3 32 32 VTop 2
SYMATTR InstName C4
SYMATTR Value 1.3n
SYMBOL voltage -2272 -32 R90
WINDOW 0 32 56 VTop 2
WINDOW 3 -32 56 VBottom 2
WINDOW 123 0 0 Left 0
WINDOW 39 0 0 Left 0
SYMATTR InstName V1
SYMATTR Value 12
SYMBOL voltage -2384 -336 R270
WINDOW 0 32 56 VTop 2
WINDOW 3 -32 56 VBottom 2
WINDOW 123 0 0 Left 0
WINDOW 39 0 0 Left 0
SYMATTR InstName V4
SYMATTR Value 12
SYMBOL voltage -1632 144 R180
WINDOW 0 24 96 Left 2
WINDOW 3 24 16 Left 2
WINDOW 123 0 0 Left 0
WINDOW 39 0 0 Left 0
SYMATTR InstName V5
SYMATTR Value 12
SYMBOL voltage -1488 224 R270
WINDOW 0 32 56 VTop 2
WINDOW 3 -32 56 VBottom 2
WINDOW 123 0 0 Left 0
WINDOW 39 0 0 Left 0
SYMATTR InstName V6
SYMATTR Value 36.4475m
SYMBOL voltage -1488 -160 R270
WINDOW 0 32 56 VTop 2
WINDOW 3 -32 56 VBottom 2
WINDOW 123 0 0 Left 0
WINDOW 39 0 0 Left 0
SYMATTR InstName V7
SYMATTR Value -2.7085m
SYMBOL UA741 -1696 224 R0
SYMATTR InstName U2
SYMBOL voltage -1712 368 R90
WINDOW 0 24 96 Left 2
WINDOW 3 24 16 Left 2
WINDOW 123 0 0 Left 0
WINDOW 39 0 0 Left 0
SYMATTR InstName V8
SYMATTR Value 12
SYMBOL UA741 -2256 -160 R0
SYMATTR InstName U3
SYMBOL cap -1072 208 R90
WINDOW 0 0 32 VBottom 2
WINDOW 3 32 32 VTop 2
SYMATTR InstName Cc1
SYMATTR Value 20p
SYMBOL res -800 208 R90
WINDOW 0 0 56 VBottom 2
WINDOW 3 32 56 VTop 2
SYMATTR InstName Rbias1
SYMATTR Value 100k
SYMBOL voltage -720 224 R0
WINDOW 123 0 0 Left 0
WINDOW 39 0 0 Left 0
SYMATTR InstName V12
SYMATTR Value 0.5
SYMBOL nmos4 -896 320 R90
SYMATTR InstName M2
SYMBOL voltage -1264 352 R0
WINDOW 123 0 0 Left 0
WINDOW 39 0 0 Left 0
SYMATTR InstName V9
SYMATTR Value SINE(0 100m 99k)
SYMBOL cap -1072 -176 R90
WINDOW 0 0 32 VBottom 2
WINDOW 3 32 32 VTop 2
SYMATTR InstName Cc2
SYMATTR Value 20p
SYMBOL res -800 -176 R90
WINDOW 0 0 56 VBottom 2
WINDOW 3 32 56 VTop 2
SYMATTR InstName Rbias2
SYMATTR Value 100k
SYMBOL voltage -720 -160 R0
WINDOW 123 0 0 Left 0
WINDOW 39 0 0 Left 0
SYMATTR InstName V2
SYMATTR Value 0.5
SYMBOL nmos4 -896 -64 R90
SYMATTR InstName M1
SYMBOL voltage -1264 -32 R0
WINDOW 123 0 0 Left 0
WINDOW 39 0 0 Left 0
SYMATTR InstName V11
SYMATTR Value SINE(0 100m 99k)
SYMBOL res -496 -176 R90
WINDOW 0 0 56 VBottom 2
WINDOW 3 32 56 VTop 2
SYMATTR InstName R11
SYMATTR Value 7.96k
SYMBOL res -352 -176 R90
WINDOW 0 0 56 VBottom 2
WINDOW 3 32 56 VTop 2
SYMATTR InstName R12
SYMATTR Value 7.96k
SYMBOL cap -320 -96 R0
SYMATTR InstName C6
SYMATTR Value 10n
SYMBOL UA741 16 -144 R0
SYMATTR InstName U4
SYMBOL cap -336 -320 R90
WINDOW 0 0 32 VBottom 2
WINDOW 3 32 32 VTop 2
SYMATTR InstName C7
SYMATTR Value 10n
SYMBOL voltage -224 16 R270
WINDOW 0 32 56 VTop 2
WINDOW 3 -32 56 VBottom 2
WINDOW 123 0 0 Left 0
WINDOW 39 0 0 Left 0
SYMATTR InstName V13
SYMATTR Value 12
SYMBOL voltage -112 -384 R90
WINDOW 0 -32 56 VBottom 2
WINDOW 3 32 56 VTop 2
WINDOW 123 0 0 Left 0
WINDOW 39 0 0 Left 0
SYMATTR InstName V14
SYMATTR Value 12
SYMBOL res 144 -160 R0
SYMATTR InstName R9
SYMATTR Value 10k
SYMBOL res -496 352 R90
WINDOW 0 0 56 VBottom 2
WINDOW 3 32 56 VTop 2
SYMATTR InstName R1
SYMATTR Value 7.96k
SYMBOL res -352 352 R90
WINDOW 0 0 56 VBottom 2
WINDOW 3 32 56 VTop 2
SYMATTR InstName R8
SYMATTR Value 7.96k
SYMBOL cap -320 432 R0
SYMATTR InstName C1
SYMATTR Value 10n
SYMBOL UA741 16 384 R0
SYMATTR InstName U1
SYMBOL cap -336 208 R90
WINDOW 0 0 32 VBottom 2
WINDOW 3 32 32 VTop 2
SYMATTR InstName C5
SYMATTR Value 10n
SYMBOL voltage -224 544 R270
WINDOW 0 32 56 VTop 2
WINDOW 3 -32 56 VBottom 2
WINDOW 123 0 0 Left 0
WINDOW 39 0 0 Left 0
SYMATTR InstName V3
SYMATTR Value 12
SYMBOL voltage -112 144 R90
WINDOW 0 -32 56 VBottom 2
WINDOW 3 32 56 VTop 2
WINDOW 123 0 0 Left 0
WINDOW 39 0 0 Left 0
SYMATTR InstName V10
SYMATTR Value 12
SYMBOL res 144 368 R0
SYMATTR InstName R16
SYMATTR Value 10k
TEXT -2640 432 Left 2 !.tran 0 18m 10m
